<?xml version="1.0" encoding="UTF-8"?>

<!-- generated on 2024-10-14 14:16:14.121756 by osmWebWizard.py UNKNOWN
<configuration>
    <net-file value="/Users/mac/Desktop/DriveArena/TrafficManager/networkFiles/2024-10-14-14-16-03/osm.net.xml.gz"/>
    <output-trip-file value="/Users/mac/Desktop/DriveArena/TrafficManager/networkFiles/2024-10-14-14-16-03/osm.passenger.trips.xml"/>
    <route-file value="/Users/mac/Desktop/DriveArena/TrafficManager/networkFiles/2024-10-14-14-16-03/osm.passenger.rou.xml"/>
    <prefix value="veh"/>
    <trip-attributes value="departLane=&quot;best&quot;"/>
    <fringe-start-attributes value="departSpeed=&quot;max&quot;"/>
    <vehicle-class value="passenger"/>
    <lanes value="True"/>
    <fringe-factor value="5"/>
    <allow-fringe.min-length value="1000.0"/>
    <via-edge-types value="highway.motorway,highway.motorway_link,highway.trunk_link,highway.primary_link,highway.secondary_link,highway.tertiary_link"/>
    <min-distance value="300.0"/>
    <min-distance.fringe value="10.0"/>
    <remove-loops value="True"/>
    <validate value="True"/>
    <insertion-density value="12.0"/>
</configuration>
-->

<!-- generated on 2024-10-14 14:16:14 by Eclipse SUMO duarouter Version 1.20.0
<configuration xmlns:xsi="http://www.w3.org/2001/XMLSchema-instance" xsi:noNamespaceSchemaLocation="http://sumo.dlr.de/xsd/duarouterConfiguration.xsd">

    <input>
        <net-file value="/Users/mac/Desktop/DriveArena/TrafficManager/networkFiles/2024-10-14-14-16-03/osm.net.xml.gz"/>
        <route-files value="/Users/mac/Desktop/DriveArena/TrafficManager/networkFiles/2024-10-14-14-16-03/osm.passenger.trips.xml"/>
    </input>

    <output>
        <output-file value="/Users/mac/Desktop/DriveArena/TrafficManager/networkFiles/2024-10-14-14-16-03/osm.passenger.trips.xml.tmp"/>
        <alternatives-output value="NUL"/>
        <write-trips value="true"/>
    </output>

    <processing>
        <remove-loops value="true"/>
    </processing>

    <time>
        <begin value="0.0"/>
        <end value="3600.0"/>
    </time>

    <report>
        <no-warnings value="true"/>
        <ignore-errors value="true"/>
        <no-step-log value="true"/>
    </report>

</configuration>
-->

<routes xmlns:xsi="http://www.w3.org/2001/XMLSchema-instance" xsi:noNamespaceSchemaLocation="http://sumo.dlr.de/xsd/routes_file.xsd">
    <vType id="veh_passenger" vClass="passenger"/>
    <trip id="veh0" type="veh_passenger" depart="0.00" departLane="best" from="42345998#0" to="-161453433#2"/>
    <trip id="veh1" type="veh_passenger" depart="11.95" departLane="best" departSpeed="max" from="1084226871" to="1309352915#1"/>
    <trip id="veh2" type="veh_passenger" depart="23.91" departLane="best" from="30705221#2" to="-30705564#1"/>
    <trip id="veh5" type="veh_passenger" depart="59.77" departLane="best" from="42345995#1" to="42453520#3"/>
    <trip id="veh7" type="veh_passenger" depart="83.68" departLane="best" from="547929105#1" to="-161453433#0"/>
    <trip id="veh8" type="veh_passenger" depart="95.64" departLane="best" departSpeed="max" from="119980752" to="1150492423#1"/>
    <trip id="veh9" type="veh_passenger" depart="107.59" departLane="best" departSpeed="max" from="694442539" to="30705221#3"/>
    <trip id="veh10" type="veh_passenger" depart="119.55" departLane="best" departSpeed="max" from="161453433#0" to="547929092#0"/>
    <trip id="veh11" type="veh_passenger" depart="131.50" departLane="best" from="547929092#5" to="-30705564#1"/>
    <trip id="veh13" type="veh_passenger" depart="155.41" departLane="best" departSpeed="max" from="-547929113" to="152429662"/>
    <trip id="veh14" type="veh_passenger" depart="167.37" departLane="best" departSpeed="max" from="-547929114" to="161467863#1"/>
    <trip id="veh15" type="veh_passenger" depart="179.32" departLane="best" from="42345998#0" to="42345998#2"/>
    <trip id="veh17" type="veh_passenger" depart="203.23" departLane="best" from="42345995#1" to="547929094#2"/>
    <trip id="veh18" type="veh_passenger" depart="215.18" departLane="best" departSpeed="max" from="-547929117" to="42345995#2"/>
    <trip id="veh20" type="veh_passenger" depart="239.09" departLane="best" from="42345995#2" to="547929105#0"/>
    <trip id="veh22" type="veh_passenger" depart="263.00" departLane="best" from="119980750#2-AddedOffRampEdge" to="161467863#1"/>
    <trip id="veh24" type="veh_passenger" depart="286.91" departLane="best" from="547929112#4" to="30705221#1"/>
    <trip id="veh25" type="veh_passenger" depart="298.87" departLane="best" from="42345995#1" to="42345995#3"/>
    <trip id="veh26" type="veh_passenger" depart="310.82" departLane="best" from="694442533#2" to="42345998#0"/>
    <trip id="veh28" type="veh_passenger" depart="334.73" departLane="best" from="42345995#3" to="161467863#0"/>
    <trip id="veh30" type="veh_passenger" depart="358.64" departLane="best" departSpeed="max" from="161453433#0" to="161467863#3"/>
    <trip id="veh31" type="veh_passenger" depart="370.59" departLane="best" departSpeed="max" from="-547929113" to="-30705564#1"/>
    <trip id="veh32" type="veh_passenger" depart="382.55" departLane="best" from="547929103#0" to="42345995#4"/>
    <trip id="veh34" type="veh_passenger" depart="406.46" departLane="best" from="694443697#0" to="547929117"/>
    <trip id="veh35" type="veh_passenger" depart="418.41" departLane="best" from="547929092#1" to="42345998#3"/>
    <trip id="veh37" type="veh_passenger" depart="442.32" departLane="best" departSpeed="max" from="-547929114" to="42345995#5"/>
    <trip id="veh38" type="veh_passenger" depart="454.28" departLane="best" from="161467863#4" to="694443697#0"/>
    <trip id="veh39" type="veh_passenger" depart="466.23" departLane="best" from="547929112#4" to="30705221#3"/>
    <trip id="veh40" type="veh_passenger" depart="478.19" departLane="best" from="161467863#0" to="1150492423#1"/>
    <trip id="veh41" type="veh_passenger" depart="490.14" departLane="best" from="1104701086#1" to="547929096"/>
    <trip id="veh42" type="veh_passenger" depart="502.10" departLane="best" from="42345995#5" to="1150492423#1"/>
    <trip id="veh43" type="veh_passenger" depart="514.05" departLane="best" from="547929101#0" to="42345998#3"/>
    <trip id="veh45" type="veh_passenger" depart="537.96" departLane="best" from="-42345945#1" to="-694442533#3"/>
    <trip id="veh46" type="veh_passenger" depart="549.91" departLane="best" from="119980750#0" to="42345945#1"/>
    <trip id="veh47" type="veh_passenger" depart="561.87" departLane="best" from="547929112#4" to="694443108"/>
    <trip id="veh48" type="veh_passenger" depart="573.82" departLane="best" departSpeed="max" from="-547929113" to="42345998#3"/>
    <trip id="veh49" type="veh_passenger" depart="585.78" departLane="best" from="30705221#2" to="42453520#4"/>
    <trip id="veh51" type="veh_passenger" depart="609.69" departLane="best" from="161467863#1" to="1309352915#0"/>
    <trip id="veh52" type="veh_passenger" depart="621.64" departLane="best" from="42345995#1" to="547929109"/>
    <trip id="veh53" type="veh_passenger" depart="633.60" departLane="best" departSpeed="max" from="-547929118" to="30705221#1"/>
    <trip id="veh55" type="veh_passenger" depart="657.51" departLane="best" from="1309352915#1" to="42345998#3"/>
    <trip id="veh56" type="veh_passenger" depart="669.46" departLane="best" departSpeed="max" from="-547929115" to="1309352915#1"/>
    <trip id="veh57" type="veh_passenger" depart="681.41" departLane="best" departSpeed="max" from="119980752" to="547929092#8"/>
    <trip id="veh61" type="veh_passenger" depart="729.23" departLane="best" departSpeed="max" from="-547929114" to="42345995#5"/>
    <trip id="veh62" type="veh_passenger" depart="741.19" departLane="best" from="30705221#2" to="42345998#2"/>
    <trip id="veh64" type="veh_passenger" depart="765.10" departLane="best" from="161453433#1" to="30705221#3"/>
    <trip id="veh65" type="veh_passenger" depart="777.05" departLane="best" from="547929110" to="152429662"/>
    <trip id="veh66" type="veh_passenger" depart="789.01" departLane="best" departSpeed="max" from="-547929118" to="42345995#6"/>
    <trip id="veh67" type="veh_passenger" depart="800.96" departLane="best" from="161467863#1" to="161467863#1"/>
    <trip id="veh68" type="veh_passenger" depart="812.92" departLane="best" from="161467863#3" to="547929117"/>
    <trip id="veh69" type="veh_passenger" depart="824.87" departLane="best" from="42345995#2" to="-33616847#1"/>
    <trip id="veh71" type="veh_passenger" depart="848.78" departLane="best" from="694443697#0" to="694442533#2"/>
    <trip id="veh72" type="veh_passenger" depart="860.73" departLane="best" departSpeed="max" from="547929107" to="1150492423#1"/>
    <trip id="veh73" type="veh_passenger" depart="872.69" departLane="best" from="30705221#2" to="1309352915#0"/>
    <trip id="veh74" type="veh_passenger" depart="884.64" departLane="best" from="161453433#1" to="42345945#1"/>
    <trip id="veh77" type="veh_passenger" depart="920.51" departLane="best" from="161467863#4" to="42345995#4"/>
    <trip id="veh79" type="veh_passenger" depart="944.42" departLane="best" from="42345995#2" to="547929109"/>
    <trip id="veh80" type="veh_passenger" depart="956.37" departLane="best" departSpeed="max" from="-547929116" to="1309352915#0"/>
    <trip id="veh81" type="veh_passenger" depart="968.33" departLane="best" from="694443697#0" to="547929092#6"/>
    <trip id="veh82" type="veh_passenger" depart="980.28" departLane="best" from="42345995#1" to="547929112#3"/>
    <trip id="veh83" type="veh_passenger" depart="992.24" departLane="best" from="30705564#0" to="547929117"/>
    <trip id="veh84" type="veh_passenger" depart="1004.19" departLane="best" departSpeed="max" from="-547929116" to="694443698"/>
    <trip id="veh85" type="veh_passenger" depart="1016.15" departLane="best" from="42345995#4" to="547929103#0"/>
    <trip id="veh86" type="veh_passenger" depart="1028.10" departLane="best" from="-694442533#1" to="1150492422#2"/>
    <trip id="veh87" type="veh_passenger" depart="1040.05" departLane="best" from="547929112#7" to="152429662"/>
    <trip id="veh88" type="veh_passenger" depart="1052.01" departLane="best" from="42345995#4" to="547929094#2"/>
    <trip id="veh89" type="veh_passenger" depart="1063.96" departLane="best" from="161467863#0" to="547929092#7"/>
    <trip id="veh90" type="veh_passenger" depart="1075.92" departLane="best" from="-42345945#1" to="694442534"/>
    <trip id="veh91" type="veh_passenger" depart="1087.87" departLane="best" from="-694442533#1" to="42345995#3"/>
    <trip id="veh92" type="veh_passenger" depart="1099.83" departLane="best" from="42453520#4" to="1309352915#0"/>
    <trip id="veh93" type="veh_passenger" depart="1111.78" departLane="best" from="119980750#2-AddedOffRampEdge" to="547929112#4"/>
    <trip id="veh94" type="veh_passenger" depart="1123.74" departLane="best" departSpeed="max" from="-547929113" to="42345998#0"/>
    <trip id="veh97" type="veh_passenger" depart="1159.60" departLane="best" from="42345995#1" to="-161453433#0"/>
    <trip id="veh98" type="veh_passenger" depart="1171.56" departLane="best" from="547929105#3" to="1309352915#0"/>
    <trip id="veh99" type="veh_passenger" depart="1183.51" departLane="best" departSpeed="max" from="-547929115" to="1150492422#2"/>
    <trip id="veh100" type="veh_passenger" depart="1195.46" departLane="best" departSpeed="max" from="1084226871" to="547929094#1"/>
    <trip id="veh104" type="veh_passenger" depart="1243.28" departLane="best" from="161467863#1" to="161467863#1"/>
    <trip id="veh106" type="veh_passenger" depart="1267.19" departLane="best" from="161467863#1" to="-161453433#0"/>
    <trip id="veh107" type="veh_passenger" depart="1279.15" departLane="best" from="-694442533#0" to="42453520#3"/>
    <trip id="veh108" type="veh_passenger" depart="1291.10" departLane="best" departSpeed="max" from="-547929116" to="1150492423#1"/>
    <trip id="veh110" type="veh_passenger" depart="1315.01" departLane="best" from="547929103#1" to="547929117"/>
    <trip id="veh111" type="veh_passenger" depart="1326.97" departLane="best" from="161467863#0" to="547929094#2"/>
    <trip id="veh113" type="veh_passenger" depart="1350.88" departLane="best" departSpeed="max" from="119980752" to="-694442533#3"/>
    <trip id="veh114" type="veh_passenger" depart="1362.83" departLane="best" from="547929105#0" to="547929117"/>
    <trip id="veh115" type="veh_passenger" depart="1374.78" departLane="best" from="547929105#1" to="30705221#3"/>
    <trip id="veh116" type="veh_passenger" depart="1386.74" departLane="best" from="547929102" to="1150492422#2"/>
    <trip id="veh118" type="veh_passenger" depart="1410.65" departLane="best" from="161467863#4" to="30705221#1"/>
    <trip id="veh120" type="veh_passenger" depart="1434.56" departLane="best" departSpeed="max" from="119980752" to="547929117"/>
    <trip id="veh121" type="veh_passenger" depart="1446.51" departLane="best" from="694443108" to="161467863#1"/>
    <trip id="veh122" type="veh_passenger" depart="1458.47" departLane="best" from="42345998#0" to="42345995#3"/>
    <trip id="veh123" type="veh_passenger" depart="1470.42" departLane="best" from="694443698" to="42345998#3"/>
    <trip id="veh124" type="veh_passenger" depart="1482.38" departLane="best" departSpeed="max" from="694442539" to="1150492422#2"/>
    <trip id="veh125" type="veh_passenger" depart="1494.33" departLane="best" from="694443697#0" to="1150492423#1"/>
    <trip id="veh126" type="veh_passenger" depart="1506.29" departLane="best" departSpeed="max" from="-547929114" to="42345995#5"/>
    <trip id="veh128" type="veh_passenger" depart="1530.20" departLane="best" from="42345995#5" to="42345998#3"/>
    <trip id="veh129" type="veh_passenger" depart="1542.15" departLane="best" departSpeed="max" from="161453433#0" to="547929092#5"/>
    <trip id="veh131" type="veh_passenger" depart="1566.06" departLane="best" from="42345995#1" to="547929109"/>
    <trip id="veh132" type="veh_passenger" depart="1578.01" departLane="best" from="42453520#3" to="30705221#3"/>
    <trip id="veh133" type="veh_passenger" depart="1589.97" departLane="best" from="119980750#2-AddedOffRampEdge" to="547929117"/>
    <trip id="veh134" type="veh_passenger" depart="1601.92" departLane="best" from="547929092#9" to="1309352915#0"/>
    <trip id="veh135" type="veh_passenger" depart="1613.88" departLane="best" from="119980750#2" to="42345995#3-AddedOnRampEdge"/>
    <trip id="veh136" type="veh_passenger" depart="1625.83" departLane="best" from="161453433#1" to="161467863#4"/>
    <trip id="veh137" type="veh_passenger" depart="1637.79" departLane="best" departSpeed="max" from="-547929115" to="42345995#4"/>
    <trip id="veh138" type="veh_passenger" depart="1649.74" departLane="best" from="694442530" to="547929094#2"/>
    <trip id="veh141" type="veh_passenger" depart="1685.61" departLane="best" from="161467863#1" to="547929092#6"/>
    <trip id="veh143" type="veh_passenger" depart="1709.51" departLane="best" from="547929103#1" to="1150492423#1"/>
    <trip id="veh144" type="veh_passenger" depart="1721.47" departLane="best" departSpeed="max" from="-547929113" to="42345998#3"/>
    <trip id="veh145" type="veh_passenger" depart="1733.42" departLane="best" from="42453520#4" to="1309352915#1"/>
    <trip id="veh146" type="veh_passenger" depart="1745.38" departLane="best" departSpeed="max" from="-547929118" to="-161453433#2"/>
    <trip id="veh147" type="veh_passenger" depart="1757.33" departLane="best" from="694442533#3" to="42345998#2"/>
    <trip id="veh148" type="veh_passenger" depart="1769.29" departLane="best" from="161467863#0" to="547929095#0"/>
    <trip id="veh149" type="veh_passenger" depart="1781.24" departLane="best" from="30705221#3" to="152429662"/>
    <trip id="veh150" type="veh_passenger" depart="1793.20" departLane="best" from="42345995#1" to="-161453433#0"/>
    <trip id="veh151" type="veh_passenger" depart="1805.15" departLane="best" departSpeed="max" from="-547929114" to="42345995#4"/>
    <trip id="veh152" type="veh_passenger" depart="1817.11" departLane="best" departSpeed="max" from="-547929117" to="694443697#1"/>
    <trip id="veh153" type="veh_passenger" depart="1829.06" departLane="best" from="42345945#2" to="-33616847#1"/>
    <trip id="veh155" type="veh_passenger" depart="1852.97" departLane="best" from="42345995#4" to="694443108"/>
    <trip id="veh156" type="veh_passenger" depart="1864.93" departLane="best" from="547929092#9" to="42345998#3"/>
    <trip id="veh157" type="veh_passenger" depart="1876.88" departLane="best" departSpeed="max" from="547929107" to="42453520#4"/>
    <trip id="veh158" type="veh_passenger" depart="1888.83" departLane="best" from="694442530" to="547929112#2"/>
    <trip id="veh159" type="veh_passenger" depart="1900.79" departLane="best" from="547929097#1" to="42345998#3"/>
    <trip id="veh160" type="veh_passenger" depart="1912.74" departLane="best" from="42345995#6" to="161467863#1"/>
    <trip id="veh161" type="veh_passenger" depart="1924.70" departLane="best" departSpeed="max" from="1084226871" to="30705221#2"/>
    <trip id="veh162" type="veh_passenger" depart="1936.65" departLane="best" from="42345995#1" to="1150492423#1"/>
    <trip id="veh163" type="veh_passenger" depart="1948.61" departLane="best" from="161467863#0" to="42453520#3"/>
    <trip id="veh164" type="veh_passenger" depart="1960.56" departLane="best" from="161467863#0" to="1309352915#0"/>
    <trip id="veh166" type="veh_passenger" depart="1984.47" departLane="best" from="42345995#3-AddedOnRampEdge" to="547929105#2"/>
    <trip id="veh167" type="veh_passenger" depart="1996.43" departLane="best" from="161467863#4" to="547929112#5"/>
    <trip id="veh169" type="veh_passenger" depart="2020.34" departLane="best" from="161467863#0" to="547929112#3"/>
    <trip id="veh170" type="veh_passenger" depart="2032.29" departLane="best" from="42345995#2" to="547929094#1"/>
    <trip id="veh172" type="veh_passenger" depart="2056.20" departLane="best" from="1309352915#1" to="-30705564#1"/>
    <trip id="veh173" type="veh_passenger" depart="2068.15" departLane="best" departSpeed="max" from="119980752" to="547929103#1"/>
    <trip id="veh174" type="veh_passenger" depart="2080.11" departLane="best" from="161453433#1" to="1150492423#1"/>
    <trip id="veh175" type="veh_passenger" depart="2092.06" departLane="best" from="161467863#1" to="1150492423#1"/>
    <trip id="veh176" type="veh_passenger" depart="2104.02" departLane="best" from="42345995#6" to="-161453433#2"/>
    <trip id="veh177" type="veh_passenger" depart="2115.97" departLane="best" departSpeed="max" from="161453433#0" to="547929092#2"/>
    <trip id="veh178" type="veh_passenger" depart="2127.93" departLane="best" departSpeed="max" from="-547929115" to="42345998#0"/>
    <trip id="veh181" type="veh_passenger" depart="2163.79" departLane="best" from="547929098#1" to="42345995#2"/>
    <trip id="veh182" type="veh_passenger" depart="2175.75" departLane="best" from="547929097#0" to="547929116"/>
    <trip id="veh183" type="veh_passenger" depart="2187.70" departLane="best" from="-42345945#1" to="42453520#2"/>
    <trip id="veh185" type="veh_passenger" depart="2211.61" departLane="best" from="42345995#1" to="547929113"/>
    <trip id="veh186" type="veh_passenger" depart="2223.56" departLane="best" from="42345995#1" to="547929112#5"/>
    <trip id="veh188" type="veh_passenger" depart="2247.47" departLane="best" from="-42345945#1" to="1150492423#1"/>
    <trip id="veh189" type="veh_passenger" depart="2259.43" departLane="best" departSpeed="max" from="-547929115" to="547929102"/>
    <trip id="veh190" type="veh_passenger" depart="2271.38" departLane="best" from="42345995#3" to="1309352915#0"/>
    <trip id="veh191" type="veh_passenger" depart="2283.34" departLane="best" from="547929096" to="1150492422#2"/>
    <trip id="veh192" type="veh_passenger" depart="2295.29" departLane="best" from="547929105#3" to="849487526#4"/>
    <trip id="veh193" type="veh_passenger" depart="2307.25" departLane="best" departSpeed="max" from="-547929114" to="-161453433#2"/>
    <trip id="veh194" type="veh_passenger" depart="2319.20" departLane="best" from="119980750#2" to="547929103#1"/>
    <trip id="veh195" type="veh_passenger" depart="2331.16" departLane="best" departSpeed="max" from="694442539" to="42345995#3"/>
    <trip id="veh197" type="veh_passenger" depart="2355.07" departLane="best" from="547929101#1" to="33616847#1"/>
    <trip id="veh198" type="veh_passenger" depart="2367.02" departLane="best" from="30705221#2" to="42345998#2"/>
    <trip id="veh199" type="veh_passenger" depart="2378.98" departLane="best" from="30705564#0" to="30705564#0"/>
    <trip id="veh200" type="veh_passenger" depart="2390.93" departLane="best" departSpeed="max" from="-547929114" to="694443698"/>
    <trip id="veh201" type="veh_passenger" depart="2402.88" departLane="best" from="42345998#0" to="547929116"/>
    <trip id="veh202" type="veh_passenger" depart="2414.84" departLane="best" from="547929092#6" to="42345995#5"/>
    <trip id="veh204" type="veh_passenger" depart="2438.75" departLane="best" departSpeed="max" from="1084226871" to="547929115"/>
    <trip id="veh205" type="veh_passenger" depart="2450.70" departLane="best" from="1309352915#1" to="547929109"/>
    <trip id="veh206" type="veh_passenger" depart="2462.66" departLane="best" departSpeed="max" from="1084226871" to="547929117"/>
    <trip id="veh207" type="veh_passenger" depart="2474.61" departLane="best" departSpeed="max" from="547929107" to="-694442538"/>
    <trip id="veh208" type="veh_passenger" depart="2486.57" departLane="best" from="547929112#5" to="152429662"/>
    <trip id="veh209" type="veh_passenger" depart="2498.52" departLane="best" from="161467863#1" to="547929094#2"/>
    <trip id="veh210" type="veh_passenger" depart="2510.48" departLane="best" departSpeed="max" from="161453433#0" to="-30705564#1"/>
    <trip id="veh211" type="veh_passenger" depart="2522.43" departLane="best" departSpeed="max" from="547929107" to="1150492423#1"/>
    <trip id="veh213" type="veh_passenger" depart="2546.34" departLane="best" departSpeed="max" from="119980752" to="547929118"/>
    <trip id="veh214" type="veh_passenger" depart="2558.29" departLane="best" from="-33616847#1" to="694443108"/>
    <trip id="veh215" type="veh_passenger" depart="2570.25" departLane="best" from="161467863#0" to="547929112#6"/>
    <trip id="veh216" type="veh_passenger" depart="2582.20" departLane="best" from="161467863#0" to="547929114"/>
    <trip id="veh217" type="veh_passenger" depart="2594.16" departLane="best" departSpeed="max" from="-547929114" to="1309352915#1"/>
    <trip id="veh218" type="veh_passenger" depart="2606.11" departLane="best" from="42345995#3-AddedOnRampEdge" to="42345998#2"/>
    <trip id="veh219" type="veh_passenger" depart="2618.07" departLane="best" from="42345995#1" to="42345995#4"/>
    <trip id="veh220" type="veh_passenger" depart="2630.02" departLane="best" from="547929095#2" to="30705221#3"/>
    <trip id="veh221" type="veh_passenger" depart="2641.98" departLane="best" from="-694442534" to="1150492422#2"/>
    <trip id="veh222" type="veh_passenger" depart="2653.93" departLane="best" departSpeed="max" from="-547929118" to="1150492422#2"/>
    <trip id="veh223" type="veh_passenger" depart="2665.89" departLane="best" from="42345995#1" to="547929112#7"/>
    <trip id="veh224" type="veh_passenger" depart="2677.84" departLane="best" from="30705221#2" to="547929109"/>
    <trip id="veh225" type="veh_passenger" depart="2689.80" departLane="best" from="694443697#1" to="42345998#3"/>
    <trip id="veh226" type="veh_passenger" depart="2701.75" departLane="best" departSpeed="max" from="-547929117" to="-161453433#0"/>
    <trip id="veh227" type="veh_passenger" depart="2713.71" departLane="best" from="42345995#1" to="161467863#1"/>
    <trip id="veh228" type="veh_passenger" depart="2725.66" departLane="best" from="694443697#1" to="547929092#0"/>
    <trip id="veh229" type="veh_passenger" depart="2737.61" departLane="best" from="547929092#4" to="1150492423#1"/>
    <trip id="veh230" type="veh_passenger" depart="2749.57" departLane="best" from="547929112#2" to="42345998#3"/>
    <trip id="veh231" type="veh_passenger" depart="2761.52" departLane="best" from="30705221#1" to="42345995#5"/>
    <trip id="veh232" type="veh_passenger" depart="2773.48" departLane="best" departSpeed="max" from="694442539" to="42345998#2"/>
    <trip id="veh233" type="veh_passenger" depart="2785.43" departLane="best" from="547929105#4" to="42345995#3"/>
    <trip id="veh235" type="veh_passenger" depart="2809.34" departLane="best" from="42345995#3" to="30705221#1"/>
    <trip id="veh237" type="veh_passenger" depart="2833.25" departLane="best" from="161467863#3" to="547929117"/>
    <trip id="veh239" type="veh_passenger" depart="2857.16" departLane="best" from="42345995#6" to="547929094#2"/>
    <trip id="veh240" type="veh_passenger" depart="2869.12" departLane="best" from="547929095#0" to="694443108"/>
    <trip id="veh243" type="veh_passenger" depart="2904.98" departLane="best" from="42345995#4" to="161467863#3"/>
    <trip id="veh244" type="veh_passenger" depart="2916.93" departLane="best" from="547929092#5" to="42345998#0"/>
    <trip id="veh245" type="veh_passenger" depart="2928.89" departLane="best" from="161467863#1" to="42453520#3"/>
    <trip id="veh246" type="veh_passenger" depart="2940.84" departLane="best" from="42345995#1" to="694442530"/>
    <trip id="veh247" type="veh_passenger" depart="2952.80" departLane="best" departSpeed="max" from="-547929117" to="30705221#1"/>
    <trip id="veh248" type="veh_passenger" depart="2964.75" departLane="best" departSpeed="max" from="694442539" to="42345998#3"/>
    <trip id="veh249" type="veh_passenger" depart="2976.71" departLane="best" from="161467863#0" to="-694442534"/>
    <trip id="veh250" type="veh_passenger" depart="2988.66" departLane="best" departSpeed="max" from="-547929100" to="42345995#5"/>
    <trip id="veh251" type="veh_passenger" depart="3000.62" departLane="best" departSpeed="max" from="-547929113" to="694443698"/>
    <trip id="veh253" type="veh_passenger" depart="3024.53" departLane="best" from="42453520#4" to="161467863#1"/>
    <trip id="veh254" type="veh_passenger" depart="3036.48" departLane="best" from="42345995#3-AddedOnRampEdge" to="547929095#2"/>
    <trip id="veh256" type="veh_passenger" depart="3060.39" departLane="best" departSpeed="max" from="119980752" to="30705221#3"/>
    <trip id="veh257" type="veh_passenger" depart="3072.34" departLane="best" departSpeed="max" from="119980752" to="547929105#2"/>
    <trip id="veh258" type="veh_passenger" depart="3084.30" departLane="best" departSpeed="max" from="1084226871" to="694443108"/>
    <trip id="veh259" type="veh_passenger" depart="3096.25" departLane="best" from="547929105#2" to="42453520#4"/>
    <trip id="veh260" type="veh_passenger" depart="3108.21" departLane="best" from="161467863#4" to="30705221#1"/>
    <trip id="veh261" type="veh_passenger" depart="3120.16" departLane="best" from="161453433#1" to="42345998#3"/>
    <trip id="veh263" type="veh_passenger" depart="3144.07" departLane="best" from="42345995#1" to="42345995#3-AddedOnRampEdge"/>
    <trip id="veh265" type="veh_passenger" depart="3167.98" departLane="best" from="42345995#2" to="-694442533#3"/>
    <trip id="veh266" type="veh_passenger" depart="3179.94" departLane="best" departSpeed="max" from="-547929115" to="849487526#6"/>
    <trip id="veh267" type="veh_passenger" depart="3191.89" departLane="best" from="42345995#5" to="152429662"/>
    <trip id="veh268" type="veh_passenger" depart="3203.85" departLane="best" departSpeed="max" from="-547929116" to="547929092#0"/>
    <trip id="veh269" type="veh_passenger" depart="3215.80" departLane="best" from="42345995#2" to="1104678034#0"/>
    <trip id="veh271" type="veh_passenger" depart="3239.71" departLane="best" from="161467863#1" to="1150492422#2"/>
    <trip id="veh272" type="veh_passenger" depart="3251.66" departLane="best" departSpeed="max" from="547929107" to="42345998#3"/>
    <trip id="veh273" type="veh_passenger" depart="3263.62" departLane="best" from="547929092#8" to="42345998#3"/>
    <trip id="veh274" type="veh_passenger" depart="3275.57" departLane="best" departSpeed="max" from="1084226871" to="547929116"/>
    <trip id="veh275" type="veh_passenger" depart="3287.53" departLane="best" from="694443698" to="152429662"/>
    <trip id="veh276" type="veh_passenger" depart="3299.48" departLane="best" from="694442534" to="42345998#3"/>
    <trip id="veh277" type="veh_passenger" depart="3311.44" departLane="best" departSpeed="max" from="1084226871" to="547929114"/>
    <trip id="veh278" type="veh_passenger" depart="3323.39" departLane="best" from="161467863#0" to="694442534"/>
    <trip id="veh280" type="veh_passenger" depart="3347.30" departLane="best" from="161467863#0" to="1150492423#1"/>
    <trip id="veh281" type="veh_passenger" depart="3359.26" departLane="best" from="42345995#1" to="33616847#1"/>
    <trip id="veh282" type="veh_passenger" depart="3371.21" departLane="best" from="42345995#2" to="42453520#3"/>
    <trip id="veh283" type="veh_passenger" depart="3383.17" departLane="best" from="161467863#4" to="30705221#2"/>
    <trip id="veh284" type="veh_passenger" depart="3395.12" departLane="best" from="42345995#3-AddedOnRampEdge" to="152429662"/>
    <trip id="veh285" type="veh_passenger" depart="3407.07" departLane="best" from="547929101#0" to="-30705564#1"/>
    <trip id="veh286" type="veh_passenger" depart="3419.03" departLane="best" from="547929105#2" to="42345995#2"/>
    <trip id="veh287" type="veh_passenger" depart="3430.98" departLane="best" from="694443698" to="42345998#3"/>
    <trip id="veh288" type="veh_passenger" depart="3442.94" departLane="best" departSpeed="max" from="-547929100" to="42345998#3"/>
    <trip id="veh289" type="veh_passenger" depart="3454.89" departLane="best" from="42345995#4" to="547929118"/>