<?xml version="1.0" encoding="UTF-8"?>

<!-- generated on 2024-10-14 14:16:12 by Eclipse SUMO netconvert Version 1.20.0
<configuration xmlns:xsi="http://www.w3.org/2001/XMLSchema-instance" xsi:noNamespaceSchemaLocation="http://sumo.dlr.de/xsd/netconvertConfiguration.xsd">

    <input>
        <type-files value="${SUMO_HOME}/data/typemap/osmNetconvert.typ.xml,${SUMO_HOME}/data/typemap/osmNetconvertAerialway.typ.xml"/>
        <osm-files value="osm_bbox.osm.xml.gz"/>
    </input>

    <output>
        <output-file value="osm.net.xml.gz"/>
        <output.street-names value="true"/>
        <output.original-names value="true"/>
        <ptstop-output value="osm_stops.add.xml"/>
        <ptline-output value="osm_ptlines.xml"/>
    </output>

    <projection>
        <proj.utm value="true"/>
    </projection>

    <processing>
        <geometry.remove value="true"/>
        <roundabouts.guess value="true"/>
    </processing>

    <tls_building>
        <tls.discard-simple value="true"/>
        <tls.join value="true"/>
        <tls.guess-signals value="true"/>
        <tls.default-type value="actuated"/>
    </tls_building>

    <ramp_guessing>
        <ramps.guess value="true"/>
    </ramp_guessing>

    <junctions>
        <junctions.join value="true"/>
        <junctions.corner-detail value="5"/>
    </junctions>

    <railway>
        <railway.topology.repair value="true"/>
    </railway>

</configuration>
-->

<net version="1.20" junctionCornerDetail="5" limitTurnSpeed="5.50" xmlns:xsi="http://www.w3.org/2001/XMLSchema-instance" xsi:noNamespaceSchemaLocation="http://sumo.dlr.de/xsd/net_file.xsd">

    <location netOffset="-445559.89,-4430250.29" convBoundary="0.00,0.00,862.04,1784.53" origBoundary="116.362014,40.020726,116.372023,40.036836" projParameter="+proj=utm +zone=50 +ellps=WGS84 +datum=WGS84 +units=m +no_defs"/>

    <type id="highway.cycleway" priority="1" numLanes="1" speed="5.56" allow="bicycle" oneway="0" width="2.00"/>
    <type id="highway.footway" priority="1" numLanes="1" speed="2.78" allow="pedestrian" oneway="1" width="2.00"/>
    <type id="highway.living_street" priority="2" numLanes="1" speed="2.78" disallow="tram rail_urban rail rail_electric rail_fast ship container cable_car subway aircraft wheelchair scooter drone" oneway="0"/>
    <type id="highway.motorway" priority="14" numLanes="2" speed="39.44" allow="private emergency authority army vip passenger hov taxi bus coach delivery truck trailer motorcycle evehicle custom1 custom2" oneway="1"/>
    <type id="highway.motorway_link" priority="9" numLanes="1" speed="22.22" allow="private emergency authority army vip passenger hov taxi bus coach delivery truck trailer motorcycle evehicle custom1 custom2" oneway="1"/>
    <type id="highway.pedestrian" priority="1" numLanes="1" speed="2.78" allow="pedestrian" oneway="1" width="2.00"/>
    <type id="highway.primary" priority="12" numLanes="2" speed="27.78" disallow="tram rail_urban rail rail_electric rail_fast ship container cable_car subway aircraft wheelchair scooter drone" oneway="0"/>
    <type id="highway.raceway" priority="15" numLanes="2" speed="83.33" allow="vip" oneway="0"/>
    <type id="highway.residential" priority="3" numLanes="1" speed="13.89" disallow="tram rail_urban rail rail_electric rail_fast ship container cable_car subway aircraft wheelchair scooter drone" oneway="0"/>
    <type id="highway.secondary" priority="11" numLanes="1" speed="27.78" disallow="tram rail_urban rail rail_electric rail_fast ship container cable_car subway aircraft wheelchair scooter drone" oneway="0"/>
    <type id="highway.service" priority="1" numLanes="1" speed="5.56" allow="pedestrian delivery bicycle" oneway="0"/>
    <type id="highway.tertiary" priority="10" numLanes="1" speed="22.22" disallow="tram rail_urban rail rail_electric rail_fast ship container cable_car subway aircraft wheelchair scooter drone" oneway="0"/>
    <type id="highway.track" priority="1" numLanes="1" speed="5.56" allow="pedestrian motorcycle moped bicycle" oneway="0"/>
    <type id="highway.unclassified" priority="4" numLanes="1" speed="13.89" disallow="tram rail_urban rail rail_electric rail_fast ship container cable_car subway aircraft wheelchair scooter drone" oneway="0"/>
    <type id="railway.subway" priority="18" numLanes="1" speed="27.78" allow="subway" oneway="1"/>

    <edge id=":10108716173_0" function="internal">
        <lane id=":10108716173_0_0" index="0" disallow="tram rail_urban rail rail_electric rail_fast ship container cable_car subway aircraft wheelchair scooter drone" speed="22.22" length="5.17" shape="231.18,1645.85 226.22,1644.40"/>
    </edge>
    <edge id=":10108716174_0" function="internal">
        <lane id=":10108716174_0_0" index="0" disallow="tram rail_urban rail rail_electric rail_fast ship container cable_car subway aircraft wheelchair scooter drone" speed="22.22" length="5.29" shape="228.99,1632.49 234.02,1634.15"/>
    </edge>
    <edge id=":10108716175_0" function="internal">
        <lane id=":10108716175_0_0" index="0" disallow="tram rail_urban rail rail_electric rail_fast ship container cable_car subway aircraft wheelchair scooter drone" speed="27.78" length="4.31" shape="250.02,1629.57 250.84,1625.26"/>
        <lane id=":10108716175_0_1" index="1" disallow="tram rail_urban rail rail_electric rail_fast ship container cable_car subway aircraft wheelchair scooter drone" speed="27.78" length="4.31" shape="253.17,1630.12 253.98,1625.89"/>
        <lane id=":10108716175_0_2" index="2" disallow="tram rail_urban rail rail_electric rail_fast ship container cable_car subway aircraft wheelchair scooter drone" speed="27.78" length="4.31" shape="256.32,1630.66 257.12,1626.52"/>
    </edge>
    <edge id=":10708244838_0" function="internal">
        <lane id=":10708244838_0_0" index="0" allow="bicycle" speed="5.56" length="1.86" width="2.00" shape="536.51,112.32 536.59,112.83 536.81,113.14 537.11,113.42 537.46,113.85"/>
    </edge>
    <edge id=":10708244838_1" function="internal">
        <lane id=":10708244838_1_0" index="0" allow="bicycle" speed="2.89" length="2.92" width="2.00" shape="536.51,112.32 536.01,113.07 535.51,113.31 535.01,113.06 534.51,112.31"/>
    </edge>
    <edge id=":10708244840_0" function="internal">
        <lane id=":10708244840_0_0" index="0" allow="bicycle" speed="2.89" length="2.95" width="2.00" shape="537.92,28.90 538.48,28.18 539.00,27.96 539.49,28.25 539.94,29.04"/>
    </edge>
    <edge id=":10822382986_0" function="internal">
        <lane id=":10822382986_0_0" index="0" allow="pedestrian delivery bicycle" speed="4.95" length="5.11" shape="86.46,60.61 86.62,62.02 87.20,63.00 88.19,63.55 89.60,63.67"/>
    </edge>
    <edge id=":10822382986_1" function="internal">
        <lane id=":10822382986_1_0" index="0" allow="pedestrian delivery bicycle" speed="3.65" length="4.67" shape="86.46,60.61 85.62,61.79 84.81,62.17 84.02,61.74 83.26,60.52"/>
    </edge>
    <edge id=":10822382988_0" function="internal">
        <lane id=":10822382988_0_0" index="0" allow="pedestrian bicycle" speed="5.34" length="5.07" shape="82.26,25.98 81.91,24.60 81.24,23.60 80.27,22.99 78.99,22.76"/>
    </edge>
    <edge id=":10822382988_1" function="internal">
        <lane id=":10822382988_1_0" index="0" allow="pedestrian bicycle" speed="5.56" length="9.91" shape="82.26,25.98 82.30,23.28 83.18,21.20 84.90,19.74 87.46,18.90"/>
    </edge>
    <edge id=":10822382988_2" function="internal">
        <lane id=":10822382988_2_0" index="0" allow="pedestrian delivery bicycle" speed="3.65" length="4.67" shape="82.26,25.98 82.90,24.69 83.65,24.19 84.49,24.49 85.43,25.58"/>
    </edge>
    <edge id=":10822382988_3" function="internal">
        <lane id=":10822382988_3_0" index="0" allow="pedestrian bicycle" speed="5.10" length="4.94" shape="88.03,22.05 86.75,22.47 85.89,23.20 85.45,24.23 85.43,25.58"/>
    </edge>
    <edge id=":10822382988_4" function="internal">
        <lane id=":10822382988_4_0" index="0" allow="pedestrian motorcycle moped bicycle" speed="5.56" length="9.09" shape="88.03,22.05 85.37,22.51 83.53,22.75 81.69,22.81 78.99,22.76"/>
    </edge>
    <edge id=":10822382988_5" function="internal">
        <lane id=":10822382988_5_0" index="0" allow="pedestrian motorcycle moped bicycle" speed="3.65" length="4.67" shape="88.03,22.05 86.70,21.47 86.17,20.76 86.42,19.90 87.46,18.90"/>
    </edge>
    <edge id=":10822382988_6" function="internal">
        <lane id=":10822382988_6_0" index="0" allow="pedestrian motorcycle moped bicycle" speed="5.56" length="8.43" shape="79.08,19.56 81.58,19.61 83.29,19.55 85.00,19.33 87.46,18.90"/>
    </edge>
    <edge id=":10822382988_7" function="internal">
        <lane id=":10822382988_7_0" index="0" allow="pedestrian bicycle" speed="5.56" length="9.68" shape="79.08,19.56 81.58,19.99 83.47,21.14 84.76,23.00 85.43,25.58"/>
    </edge>
    <edge id=":10822382988_8" function="internal">
        <lane id=":10822382988_8_0" index="0" allow="pedestrian motorcycle moped bicycle" speed="3.65" length="4.67" shape="79.08,19.56 80.26,20.39 80.63,21.20 80.21,21.99 78.99,22.76"/>
    </edge>
    <edge id=":10822383001_0" function="internal">
        <lane id=":10822383001_0_0" index="0" allow="pedestrian motorcycle moped bicycle" speed="3.65" length="4.67" shape="2.15,18.52 1.00,17.64 0.66,16.81 1.12,16.04 2.37,15.33"/>
    </edge>
    <edge id=":10822383004_0" function="internal">
        <lane id=":10822383004_0_0" index="0" allow="pedestrian motorcycle moped bicycle" speed="3.65" length="4.67" shape="190.18,-0.69 191.52,-0.15 192.06,0.56 191.83,1.42 190.81,2.44"/>
    </edge>
    <edge id=":10822383013_0" function="internal">
        <lane id=":10822383013_0_0" index="0" disallow="tram rail_urban rail rail_electric rail_fast ship container cable_car subway aircraft wheelchair scooter drone" speed="22.22" length="6.87" shape="493.26,2.67 495.29,2.54 496.69,2.42 498.07,2.24 500.08,1.91"/>
    </edge>
    <edge id=":10822383013_1" function="internal">
        <lane id=":10822383013_1_0" index="0" allow="bicycle" speed="5.26" length="5.86" width="2.00" shape="493.30,3.27 495.30,3.32 496.72,3.74 497.57,4.54 497.84,5.72"/>
    </edge>
    <edge id=":10822383013_2" function="internal">
        <lane id=":10822383013_2_0" index="0" allow="bicycle" speed="5.92" length="6.63" width="2.00" shape="495.84,5.69 496.11,4.03 496.90,2.75 498.19,1.85 499.98,1.32"/>
    </edge>
    <edge id=":10822383013_3" function="internal">
        <lane id=":10822383013_3_0" index="0" allow="bicycle" speed="2.89" length="2.92" width="2.00" shape="495.84,5.69 496.35,4.95 496.85,4.70 497.35,4.96 497.84,5.72"/>
    </edge>
    <edge id=":11078184493_0" function="internal">
        <lane id=":11078184493_0_0" index="0" allow="pedestrian delivery bicycle" speed="5.56" length="9.41" shape="609.67,394.10 600.33,392.92"/>
    </edge>
    <edge id=":11078184493_1" function="internal">
        <lane id=":11078184493_1_0" index="0" allow="pedestrian delivery bicycle" speed="5.56" length="10.18" shape="609.67,394.10 607.06,393.37 605.27,391.94 604.29,389.81 604.13,386.97"/>
    </edge>
    <edge id=":11078184493_2" function="internal">
        <lane id=":11078184493_2_0" index="0" allow="pedestrian delivery bicycle" speed="3.65" length="4.67" shape="609.67,394.10 608.57,393.16 608.28,392.31 608.78,391.57 610.07,390.93"/>
    </edge>
    <edge id=":11078184493_3" function="internal">
        <lane id=":11078184493_3_0" index="0" allow="pedestrian delivery bicycle" speed="5.21" length="5.21" shape="607.32,387.21 607.40,388.70 607.88,389.81 608.77,390.55 610.07,390.93"/>
    </edge>
    <edge id=":11078184493_4" function="internal">
        <lane id=":11078184493_4_0" index="0" allow="pedestrian delivery bicycle" speed="5.56" length="10.41" shape="607.32,387.21 606.70,390.02 605.33,391.90 603.20,392.87 600.33,392.92"/>
    </edge>
    <edge id=":11078184493_5" function="internal">
        <lane id=":11078184493_5_0" index="0" allow="pedestrian delivery bicycle" speed="3.65" length="4.67" shape="607.32,387.21 606.43,388.35 605.60,388.69 604.84,388.23 604.13,386.97"/>
    </edge>
    <edge id=":11078184493_6" function="internal">
        <lane id=":11078184493_6_0" index="0" allow="pedestrian delivery bicycle" speed="4.99" length="5.06" shape="600.73,389.75 602.13,389.72 603.16,389.25 603.83,388.34 604.13,386.97"/>
    </edge>
    <edge id=":11078184493_7" function="internal">
        <lane id=":11078184493_7_0" index="0" allow="pedestrian delivery bicycle" speed="5.56" length="9.41" shape="600.73,389.75 610.07,390.93"/>
    </edge>
    <edge id=":11078184493_8" function="internal">
        <lane id=":11078184493_8_0" index="0" allow="pedestrian delivery bicycle" speed="3.65" length="4.67" shape="600.73,389.75 601.82,390.69 602.12,391.53 601.62,392.28 600.33,392.92"/>
    </edge>
    <edge id=":11078226325_0" function="internal">
        <lane id=":11078226325_0_0" index="0" allow="pedestrian delivery bicycle" speed="4.85" length="4.46" shape="527.64,529.77 527.66,531.12 528.03,532.12 528.72,532.78 529.75,533.10"/>
    </edge>
    <edge id=":11078226325_1" function="internal">
        <lane id=":11078226325_1_0" index="0" disallow="tram rail_urban rail rail_electric rail_fast ship container cable_car subway aircraft wheelchair scooter drone" speed="27.78" length="5.93" shape="527.64,529.77 526.91,535.83"/>
        <lane id=":11078226325_1_1" index="1" disallow="tram rail_urban rail rail_electric rail_fast ship container cable_car subway aircraft wheelchair scooter drone" speed="27.78" length="5.93" shape="524.45,529.47 523.74,535.36"/>
        <lane id=":11078226325_1_2" index="2" disallow="tram rail_urban rail rail_electric rail_fast ship container cable_car subway aircraft wheelchair scooter drone" speed="27.78" length="5.93" shape="521.26,529.18 520.58,534.89"/>
    </edge>
    <edge id=":11078226327_0" function="internal">
        <lane id=":11078226327_0_0" index="0" allow="pedestrian delivery bicycle" speed="5.56" length="6.42" shape="560.67,569.66 558.91,569.01 557.83,568.21 556.75,567.43 554.98,566.83"/>
    </edge>
    <edge id=":11078226327_1" function="internal">
        <lane id=":11078226327_1_0" index="0" allow="pedestrian delivery bicycle" speed="3.65" length="4.67" shape="560.67,569.66 559.67,568.62 559.46,567.75 560.03,567.06 561.37,566.54"/>
    </edge>
    <edge id=":11078226327_2" function="internal">
        <lane id=":11078226327_2_0" index="0" allow="pedestrian delivery bicycle" speed="5.03" length="5.01" shape="559.05,562.82 558.92,564.19 559.27,565.27 560.09,566.05 561.37,566.54"/>
    </edge>
    <edge id=":11078226327_3" function="internal">
        <lane id=":11078226327_3_0" index="0" allow="pedestrian delivery bicycle" speed="5.56" length="6.38" shape="559.05,562.82 558.39,564.79 557.49,566.12 556.35,566.80 554.98,566.83"/>
    </edge>
    <edge id=":11078226328_0" function="internal">
        <lane id=":11078226328_0_0" index="0" allow="pedestrian delivery bicycle" speed="4.99" length="5.05" shape="526.33,561.27 524.94,561.20 523.88,561.60 523.15,562.47 522.75,563.80"/>
    </edge>
    <edge id=":11078226328_1" function="internal">
        <lane id=":11078226328_1_0" index="0" disallow="tram rail_urban rail rail_electric rail_fast ship container cable_car subway aircraft wheelchair scooter drone" speed="27.78" length="6.20" shape="523.66,557.67 522.75,563.80"/>
        <lane id=":11078226328_1_1" index="1" disallow="tram rail_urban rail rail_electric rail_fast ship container cable_car subway aircraft wheelchair scooter drone" speed="27.78" length="6.20" shape="520.50,557.20 519.59,563.33"/>
        <lane id=":11078226328_1_2" index="2" disallow="tram rail_urban rail rail_electric rail_fast ship container cable_car subway aircraft wheelchair scooter drone" speed="27.78" length="6.20" shape="517.33,556.73 516.42,562.86"/>
    </edge>
    <edge id=":11078226333_0" function="internal">
        <lane id=":11078226333_0_0" index="0" allow="pedestrian delivery bicycle" speed="5.07" length="5.04" shape="564.04,555.40 562.65,555.28 561.56,555.63 560.76,556.44 560.26,557.71"/>
    </edge>
    <edge id=":11078226333_1" function="internal">
        <lane id=":11078226333_1_0" index="0" allow="pedestrian delivery bicycle" speed="3.65" length="4.67" shape="564.04,555.40 563.05,554.35 562.83,553.49 563.40,552.79 564.75,552.28"/>
    </edge>
    <edge id=":11078226333_2" function="internal">
        <lane id=":11078226333_2_0" index="0" allow="pedestrian delivery bicycle" speed="5.03" length="5.01" shape="562.43,548.56 562.30,549.93 562.65,551.00 563.46,551.79 564.75,552.28"/>
    </edge>
    <edge id=":11078226333_3" function="internal">
        <lane id=":11078226333_3_0" index="0" allow="pedestrian delivery bicycle" speed="5.56" length="9.40" shape="562.43,548.56 560.26,557.71"/>
    </edge>
    <edge id=":11078226334_0" function="internal">
        <lane id=":11078226334_0_0" index="0" allow="pedestrian delivery bicycle" speed="5.56" length="9.41" shape="673.35,573.95 670.90,583.03"/>
    </edge>
    <edge id=":11078226334_1" function="internal">
        <lane id=":11078226334_1_0" index="0" allow="pedestrian delivery bicycle" speed="5.56" length="10.18" shape="673.35,573.95 672.27,576.44 670.60,578.02 668.37,578.69 665.55,578.44"/>
    </edge>
    <edge id=":11078226334_2" function="internal">
        <lane id=":11078226334_2_0" index="0" allow="pedestrian delivery bicycle" speed="3.65" length="4.67" shape="673.35,573.95 672.27,574.90 671.39,575.07 670.72,574.48 670.26,573.11"/>
    </edge>
    <edge id=":11078226334_3" function="internal">
        <lane id=":11078226334_3_0" index="0" allow="pedestrian delivery bicycle" speed="5.18" length="5.16" shape="666.26,575.32 667.71,575.45 668.86,575.13 669.71,574.35 670.26,573.11"/>
    </edge>
    <edge id=":11078226334_4" function="internal">
        <lane id=":11078226334_4_0" index="0" allow="pedestrian delivery bicycle" speed="5.56" length="10.36" shape="666.26,575.32 668.92,576.34 670.59,577.96 671.24,580.19 670.90,583.03"/>
    </edge>
    <edge id=":11078226334_5" function="internal">
        <lane id=":11078226334_5_0" index="0" allow="pedestrian delivery bicycle" speed="3.65" length="4.67" shape="666.26,575.32 667.25,576.36 667.46,577.23 666.90,577.92 665.55,578.44"/>
    </edge>
    <edge id=":11078226334_6" function="internal">
        <lane id=":11078226334_6_0" index="0" allow="pedestrian delivery bicycle" speed="5.00" length="5.05" shape="667.81,582.19 667.98,580.81 667.66,579.73 666.85,578.93 665.55,578.44"/>
    </edge>
    <edge id=":11078226334_7" function="internal">
        <lane id=":11078226334_7_0" index="0" allow="pedestrian delivery bicycle" speed="5.56" length="9.41" shape="667.81,582.19 670.26,573.11"/>
    </edge>
    <edge id=":11078226334_8" function="internal">
        <lane id=":11078226334_8_0" index="0" allow="pedestrian delivery bicycle" speed="3.65" length="4.67" shape="667.81,582.19 668.90,581.25 669.77,581.07 670.44,581.66 670.90,583.03"/>
    </edge>
    <edge id=":11078226335_0" function="internal">
        <lane id=":11078226335_0_0" index="0" allow="pedestrian delivery bicycle" speed="5.56" length="9.40" shape="691.47,553.87 682.29,551.83"/>
    </edge>
    <edge id=":11078226335_1" function="internal">
        <lane id=":11078226335_1_0" index="0" allow="pedestrian delivery bicycle" speed="5.56" length="10.16" shape="691.47,553.87 688.87,552.89 687.20,551.31 686.48,549.13 686.68,546.35"/>
    </edge>
    <edge id=":11078226335_2" function="internal">
        <lane id=":11078226335_2_0" index="0" allow="pedestrian delivery bicycle" speed="3.65" length="4.67" shape="691.47,553.87 690.47,552.83 690.26,551.96 690.82,551.27 692.16,550.75"/>
    </edge>
    <edge id=":11078226335_3" function="internal">
        <lane id=":11078226335_3_0" index="0" allow="pedestrian delivery bicycle" speed="5.05" length="5.01" shape="689.81,547.03 689.71,548.41 690.06,549.48 690.88,550.26 692.16,550.75"/>
    </edge>
    <edge id=":11078226335_4" function="internal">
        <lane id=":11078226335_4_0" index="0" allow="pedestrian delivery bicycle" speed="5.56" length="10.17" shape="689.81,547.03 688.83,549.65 687.25,551.32 685.07,552.04 682.29,551.83"/>
    </edge>
    <edge id=":11078226335_5" function="internal">
        <lane id=":11078226335_5_0" index="0" allow="pedestrian delivery bicycle" speed="3.65" length="4.67" shape="689.81,547.03 688.77,548.04 687.90,548.25 687.21,547.69 686.68,546.35"/>
    </edge>
    <edge id=":11078226335_6" function="internal">
        <lane id=":11078226335_6_0" index="0" allow="pedestrian delivery bicycle" speed="5.04" length="5.00" shape="682.99,548.71 684.36,548.81 685.43,548.45 686.20,547.63 686.68,546.35"/>
    </edge>
    <edge id=":11078226335_7" function="internal">
        <lane id=":11078226335_7_0" index="0" allow="pedestrian delivery bicycle" speed="5.56" length="9.40" shape="682.99,548.71 692.16,550.75"/>
    </edge>
    <edge id=":11078226335_8" function="internal">
        <lane id=":11078226335_8_0" index="0" allow="pedestrian delivery bicycle" speed="3.65" length="4.67" shape="682.99,548.71 683.99,549.75 684.20,550.62 683.64,551.31 682.29,551.83"/>
    </edge>
    <edge id=":11078226336_0" function="internal">
        <lane id=":11078226336_0_0" index="0" allow="pedestrian delivery bicycle" speed="5.15" length="5.13" shape="703.59,498.46 702.24,498.43 701.17,498.85 700.39,499.74 699.90,501.10"/>
    </edge>
    <edge id=":11078226336_1" function="internal">
        <lane id=":11078226336_1_0" index="0" allow="pedestrian delivery bicycle" speed="5.56" length="9.39" shape="703.59,498.46 694.36,496.75"/>
    </edge>
    <edge id=":11078226336_2" function="internal">
        <lane id=":11078226336_2_0" index="0" allow="pedestrian delivery bicycle" speed="3.65" length="4.67" shape="703.59,498.46 702.55,497.46 702.30,496.60 702.84,495.89 704.16,495.32"/>
    </edge>
    <edge id=":11078226336_3" function="internal">
        <lane id=":11078226336_3_0" index="0" allow="pedestrian delivery bicycle" speed="5.56" length="9.37" shape="694.95,493.61 704.16,495.32"/>
    </edge>
    <edge id=":11078226336_4" function="internal">
        <lane id=":11078226336_4_0" index="0" allow="pedestrian delivery bicycle" speed="5.56" length="10.31" shape="694.95,493.61 697.63,494.53 699.35,496.08 700.11,498.27 699.90,501.10"/>
    </edge>
    <edge id=":11078226336_5" function="internal">
        <lane id=":11078226336_5_0" index="0" allow="pedestrian delivery bicycle" speed="3.65" length="4.67" shape="694.95,493.61 695.98,494.62 696.22,495.48 695.68,496.19 694.36,496.75"/>
    </edge>
    <edge id=":11078226336_6" function="internal">
        <lane id=":11078226336_6_0" index="0" allow="pedestrian delivery bicycle" speed="5.01" length="5.04" shape="696.77,500.41 696.88,499.03 696.51,497.96 695.67,497.20 694.36,496.75"/>
    </edge>
    <edge id=":11078226336_7" function="internal">
        <lane id=":11078226336_7_0" index="0" allow="pedestrian delivery bicycle" speed="5.56" length="10.15" shape="696.77,500.41 697.75,497.77 699.30,496.04 701.44,495.22 704.16,495.32"/>
    </edge>
    <edge id=":11078226336_8" function="internal">
        <lane id=":11078226336_8_0" index="0" allow="pedestrian delivery bicycle" speed="3.65" length="4.67" shape="696.77,500.41 697.81,499.41 698.68,499.19 699.38,499.76 699.90,501.10"/>
    </edge>
    <edge id=":11078226337_0" function="internal">
        <lane id=":11078226337_0_0" index="0" allow="pedestrian delivery bicycle" speed="3.65" length="4.67" shape="659.26,490.13 658.23,489.12 657.98,488.26 658.52,487.55 659.85,486.99"/>
    </edge>
    <edge id=":11078226338_0" function="internal">
        <lane id=":11078226338_0_0" index="0" allow="pedestrian delivery bicycle" speed="3.65" length="4.67" shape="722.25,498.60 723.29,499.60 723.54,500.46 723.00,501.18 721.68,501.75"/>
    </edge>
    <edge id=":11078848965_0" function="internal">
        <lane id=":11078848965_0_0" index="0" allow="pedestrian delivery bicycle" speed="5.56" length="5.59" shape="745.50,564.42 739.96,563.70"/>
    </edge>
    <edge id=":11078848965_1" function="internal">
        <lane id=":11078848965_1_0" index="0" allow="pedestrian delivery bicycle" speed="3.65" length="1.44" shape="745.50,564.42 744.41,563.47"/>
    </edge>
    <edge id=":11078848965_4" function="internal">
        <lane id=":11078848965_4_0" index="0" allow="pedestrian delivery bicycle" speed="3.65" length="3.23" shape="744.41,563.47 744.12,562.63 744.62,561.88 745.91,561.24"/>
    </edge>
    <edge id=":11078848965_2" function="internal">
        <lane id=":11078848965_2_0" index="0" allow="pedestrian delivery bicycle" speed="5.56" length="5.58" shape="740.37,560.53 745.91,561.24"/>
    </edge>
    <edge id=":11078848965_3" function="internal">
        <lane id=":11078848965_3_0" index="0" allow="pedestrian delivery bicycle" speed="3.65" length="1.44" shape="740.37,560.53 741.46,561.47"/>
    </edge>
    <edge id=":11078848965_5" function="internal">
        <lane id=":11078848965_5_0" index="0" allow="pedestrian delivery bicycle" speed="3.65" length="3.23" shape="741.46,561.47 741.75,562.32 741.25,563.06 739.96,563.70"/>
    </edge>
    <edge id=":119980750#2-AddedOffRampNode_0" function="internal">
        <lane id=":119980750#2-AddedOffRampNode_0_0" index="0" disallow="tram rail_urban rail rail_electric rail_fast ship container cable_car subway aircraft wheelchair scooter drone" speed="22.22" length="8.40" shape="363.61,24.91 365.93,23.94 367.23,22.57 368.53,21.20 370.85,20.23"/>
        <lane id=":119980750#2-AddedOffRampNode_0_1" index="1" disallow="tram rail_urban rail rail_electric rail_fast ship container cable_car subway aircraft wheelchair scooter drone" speed="22.22" length="8.40" shape="363.61,24.91 371.46,23.37"/>
    </edge>
    <edge id=":1346457677_0" function="internal">
        <lane id=":1346457677_0_0" index="0" disallow="tram rail_urban rail rail_electric rail_fast ship container cable_car subway aircraft wheelchair scooter drone" speed="22.22" length="5.05" shape="330.08,31.41 335.05,30.49"/>
    </edge>
    <edge id=":1346457772_0" function="internal">
        <lane id=":1346457772_0_0" index="0" allow="private emergency authority army vip passenger hov taxi bus coach delivery truck trailer motorcycle evehicle custom1 custom2" speed="22.22" length="0.26" shape="265.65,118.18 265.57,118.18 265.52,118.18 265.46,118.18 265.39,118.17"/>
    </edge>
    <edge id=":1346457902_0" function="internal">
        <lane id=":1346457902_0_0" index="0" disallow="tram rail_urban rail rail_electric rail_fast ship container cable_car subway aircraft wheelchair scooter drone" speed="27.78" length="3.25" shape="530.07,373.94 530.07,377.05"/>
        <lane id=":1346457902_0_1" index="1" disallow="tram rail_urban rail rail_electric rail_fast ship container cable_car subway aircraft wheelchair scooter drone" speed="27.78" length="3.25" shape="526.87,373.88 526.88,377.14"/>
        <lane id=":1346457902_0_2" index="2" disallow="tram rail_urban rail rail_electric rail_fast ship container cable_car subway aircraft wheelchair scooter drone" speed="27.78" length="3.25" shape="523.67,373.82 523.68,377.22"/>
    </edge>
    <edge id=":1346457902_3" function="internal">
        <lane id=":1346457902_3_0" index="0" allow="private emergency authority army vip passenger hov taxi bus coach delivery truck trailer motorcycle evehicle custom1 custom2" speed="25.00" length="2.98" shape="533.22,374.00 533.27,376.97"/>
    </edge>
    <edge id=":1652482015_0" function="internal">
        <lane id=":1652482015_0_0" index="0" allow="bicycle" speed="4.58" length="4.05" width="2.00" shape="549.89,387.16 548.77,387.18 547.95,387.55 547.40,388.28 547.14,389.37"/>
    </edge>
    <edge id=":1652482015_1" function="internal">
        <lane id=":1652482015_1_0" index="0" allow="pedestrian delivery bicycle" speed="3.65" length="4.67" shape="549.96,386.56 548.87,385.62 548.58,384.78 549.07,384.03 550.37,383.39"/>
    </edge>
    <edge id=":1652482015_2" function="internal">
        <lane id=":1652482015_2_0" index="0" allow="bicycle" speed="4.50" length="4.13" width="2.00" shape="548.13,379.99 548.17,381.09 548.56,381.93 549.32,382.50 550.44,382.79"/>
    </edge>
    <edge id=":1652482015_3" function="internal">
        <lane id=":1652482015_3_0" index="0" allow="bicycle" speed="5.56" length="9.43" width="2.00" shape="548.13,379.99 547.14,389.37"/>
    </edge>
    <edge id=":1652482024_0" function="internal">
        <lane id=":1652482024_0_0" index="0" allow="bicycle" speed="4.65" length="4.08" width="2.00" shape="532.14,530.24 532.17,531.37 532.53,532.25 533.21,532.88 534.22,533.26"/>
    </edge>
    <edge id=":1652482024_1" function="internal">
        <lane id=":1652482024_1_0" index="0" allow="pedestrian delivery bicycle" speed="5.56" length="4.20" shape="529.95,533.12 531.19,533.27 532.03,533.40 532.87,533.58 534.09,533.85"/>
    </edge>
    <edge id=":1652482033_0" function="internal">
        <lane id=":1652482033_0_0" index="0" allow="pedestrian delivery bicycle" speed="5.37" length="5.26" shape="506.53,646.41 505.03,646.24 503.80,646.50 502.86,647.20 502.20,648.34"/>
    </edge>
    <edge id=":1652482033_1" function="internal">
        <lane id=":1652482033_1_0" index="0" allow="pedestrian delivery bicycle" speed="3.65" length="4.67" shape="506.53,646.41 505.55,645.36 505.35,644.48 505.93,643.80 507.28,643.30"/>
    </edge>
    <edge id=":1652482033_2" function="internal">
        <lane id=":1652482033_2_0" index="0" allow="pedestrian delivery bicycle" speed="5.00" length="5.04" shape="505.05,639.52 504.88,640.90 505.19,641.99 505.99,642.79 507.28,643.30"/>
    </edge>
    <edge id=":1652482033_3" function="internal">